LTspice 24.1.8 for Windows
Circuit: C:\Users\gerva\Documents\GitHub\LAB-FINAL-CL\Li-Ion.net
Start Time: Mon Jul 28 13:41:27 2025
solver = Normal
Maximum thread count: 16
tnom = 27
temp = 27
method = trap
Direct Newton iteration failed to find .op point.  (Use ".option noopiter" to skip.)
Starting Gmin stepping
Gmin = 10
Gmin = 1.07374
Gmin = 0.115292
Gmin = 0.0123794
Gmin = 0.00132923
Gmin = 0.000142725
Gmin = 1.5325e-05
Gmin = 1.6455e-06
Gmin = 1.76685e-07
Gmin = 1.89714e-08
Gmin = 2.03704e-09
Gmin = 2.18725e-10
Gmin = 2.34854e-11
Gmin = 2.52173e-12
Gmin = 2.70769e-13
vernier = 0.5
vernier = 0.25
Gmin = 1.76162e-13
vernier = 0.125
vernier = 0.0625
vernier = 0.03125
vernier = 0.015625
Gmin = 1.78012e-13
vernier = 0.0078125
vernier = 0.00390625
vernier = 0.00195312
vernier = 0.000976562
Gmin = 1.77882e-13
vernier = 0.000488281
Gmin = 0
Gmin stepping failed

Starting source stepping with srcstepmethod=0
Source Step = 3.0303%
Source Step = 33.3333%
Source Step = 63.6364%
vernier = 0.25
Source Step = 63.0327%
Source Step = 63.0682%
Source Step = 63.0978%
Source Step = 63.1274%
Source Step = 63.157%
Source Step = 63.1866%
Starting source stepping with srcstepmethod=1
Source Step = 3.0303%
Source Step = 33.3333%
Source Step = 63.6364%
vernier = 0.25
Source Step = 63.0327%
Source stepping failed

Pseudo Transient succeeded in finding the operating point at 2.85492 s.
Total elapsed time: 0.361 seconds.

Files loaded:
C:\Users\gerva\Documents\GitHub\LAB-FINAL-CL\Li-Ion.net

